TITL H2O_800p0-H2O-Pbcm-4-I 799.961500000000 20.986619452797 -1742.156830000000  0.00  0.00 12 (Pbcm) n - 1
REM
REM Run started: Fri, 12 Feb 2021 18:07:35 +0000 in /home/cjp20/work/RUNS/H2O/Enthalpy
REM CASTEP 20.1 from code version 09c4a41f4b97+ Fri, 27 Sep 2019 13:14:09 +0100
REM Functional Perdew Burke Ernzerhof Relativity Koelling-Harmon Dispersion off
REM Cut-off 950.0000 eV Grid scale 2.0000 Gmax 36.3185 1/A FBSC automatic
REM Offset 0.000 0.000 0.000 No. kpts 72 Spacing 0.05
REM Total runtime: 61.79 s
REM Overall efficiency: 90 %
REM
REM H2O_800p0.cell (fb05c7ff0ed30bac2da4eebc15a9379b)
REM
REM
REM
REM cmdline: crud.pl -mpinp 32
REM
REM
REM O 2|1.1|17|20|23|20:21(qc=8)
REM H 1|0.6|13|15|17|10(qc=8)
REM
CELL 1.54180    1.93184    3.39317    3.20159   90.00000   90.00000   90.00000
LATT -1
SFAC H  O  
H      1  0.5057282095216  0.8417111318711  0.2500000000000 1.0
H      1  0.5057282095216  0.6582888681289  0.7500000000000 1.0
H      1  0.0000000000000  0.5000000000000  0.5000000000000 1.0
H      1  0.0000000000000  0.0000000000000  0.0000000000000 1.0
H      1  0.0000000000000  0.0000000000000  0.5000000000000 1.0
H      1  0.0000000000000  0.5000000000000  0.0000000000000 1.0
H      1  0.4942717904784  0.3417111318711  0.2500000000000 1.0
H      1  0.4942717904784  0.1582888681289  0.7500000000000 1.0
O      2  0.2410773528068  0.8997383347074  0.7500000000000 1.0
O      2  0.2410773528068  0.6002616652926  0.2500000000000 1.0
O      2  0.7589226471932  0.1002616652926  0.2500000000000 1.0
O      2  0.7589226471932  0.3997383347074  0.7500000000000 1.0
END
