TITL H2O_800p0-H2O-P3221-12-I 799.974200000000 61.612346772393 -5226.607930000000  0.00  0.00 36 (P3221) n - 1
REM
REM Run started: Fri, 12 Feb 2021 18:09:30 +0000 in /home/cjp20/work/RUNS/H2O/Enthalpy
REM CASTEP 20.1 from code version 09c4a41f4b97+ Fri, 27 Sep 2019 13:14:09 +0100
REM Functional Perdew Burke Ernzerhof Relativity Koelling-Harmon Dispersion off
REM Cut-off 950.0000 eV Grid scale 2.0000 Gmax 36.3185 1/A FBSC automatic
REM MP grid 7 7 5 Offset 0.000 0.000 0.000 No. kpts 32 Spacing 0.05
REM Total runtime: 36.12 s
REM Overall efficiency: 90 %
REM
REM H2O_800p0.cell (fb05c7ff0ed30bac2da4eebc15a9379b)
REM
REM
REM
REM cmdline: crud.pl -mpinp 32
REM
REM
REM O 2|1.1|17|20|23|20:21(qc=8)
REM H 1|0.6|13|15|17|10(qc=8)
REM
CELL 1.54180    3.84456    3.84456    4.81331   90.00000   90.00000  120.00000
LATT -1
SFAC H  O  
H      1  0.5861990895708  0.0000000000000  0.6666666666667 1.0
H      1  0.0000000000000  0.5861990895708  0.3333333333333 1.0
H      1  0.4138009104292  0.4138009104292  0.0000000000000 1.0
H      1  0.2588640471956  0.9723941524755  0.8335921441040 1.0
H      1  0.0276058475245  0.2864698947201  0.5002588107707 1.0
H      1  0.7135301052799  0.7411359528044  0.1669254774373 1.0
H      1  0.9723941524755  0.2588640471956  0.1664078558960 1.0
H      1  0.7411359528044  0.7135301052799  0.8330745225627 1.0
H      1  0.2864698947201  0.0276058475245  0.4997411892293 1.0
H      1  0.7520384659057  0.5226848789290  0.5358301710201 1.0
H      1  0.4773151210710  0.2293535869767  0.2024968376868 1.0
H      1  0.7706464130233  0.2479615340943  0.8691635043534 1.0
H      1  0.2479615340943  0.7706464130233  0.1308364956466 1.0
H      1  0.2293535869767  0.4773151210710  0.7975031623132 1.0
H      1  0.5226848789290  0.7520384659057  0.4641698289799 1.0
H      1  0.9086315297596  0.5481464524807  0.0184781662641 1.0
H      1  0.4518535475193  0.3604850772789  0.6851448329308 1.0
H      1  0.6395149227211  0.0913684702404  0.3518114995974 1.0
H      1  0.0000000000000  0.9377311243377  0.3333333333333 1.0
H      1  0.0622688756623  0.0622688756623  0.0000000000000 1.0
H      1  0.9377311243377  0.0000000000000  0.6666666666667 1.0
H      1  0.3604850772789  0.4518535475193  0.3148551670692 1.0
H      1  0.5481464524807  0.9086315297596  0.9815218337359 1.0
H      1  0.0913684702404  0.6395149227211  0.6481885004026 1.0
O      2  0.8031740865072  0.8031740865072  0.5000000000000 1.0
O      2  0.1968259134928  0.0000000000000  0.1666666666667 1.0
O      2  0.0000000000000  0.1968259134928  0.8333333333333 1.0
O      2  0.0000000000000  0.7004156657680  0.8333333333333 1.0
O      2  0.2995843342320  0.2995843342320  0.5000000000000 1.0
O      2  0.7004156657680  0.0000000000000  0.1666666666667 1.0
O      2  0.2548462038963  0.5008959107763  0.1359599680191 1.0
O      2  0.4991040892237  0.7539502931200  0.8026266346858 1.0
O      2  0.2460497068800  0.7451537961037  0.4692933013524 1.0
O      2  0.5008959107763  0.2548462038963  0.8640400319809 1.0
O      2  0.7451537961037  0.2460497068800  0.5307066986476 1.0
O      2  0.7539502931200  0.4991040892237  0.1973733653142 1.0
END
